15

Li       0.000000000000000    0.000000000000000    0.000000000000000 
He       1.449483040961328   -3.251898881510021    0.859052814088798 
He      -0.140141296944583   -0.569831135261223    4.106635152735988 
He      -7.128030875105775    7.671385886308398   -5.740628157527340 
He      -0.986102785121352    5.759219595266847   -2.446649950436106 
He      -6.110284534495014   -3.658949469675498   -7.242140333514438 
He       7.901944398134644   -1.194178004440374   -7.963251683042898 
He       7.640289661528428    5.477133203051419    7.132735759229226 
He      -0.739044103776694   -5.651336136773763    4.028809849707734 
He       1.740036255644938    3.295556026288986    1.205330191779995 
He       7.352372405053883   -2.863649925334197    3.929236910991699 
He       6.858283951705845    1.846821246188112    2.812180125519726 
He      -3.718729484926881    6.112536406339734    5.421441567654705 
He      -0.217383823015549   -0.814288184660011   -3.642618854066061 
He      -0.495937380709353   -7.087612122425767   -0.237240648885164 
