12

Li       0.000000000000000    0.000000000000000    0.000000000000000 
He       0.595999583328812   -1.770467243162271   -7.993660509348846 
He       2.242337222404128   -0.939447093825230    2.058406681910306 
He      -2.500714161096415    3.458970972852402   -0.791121637051287 
He      -1.701263665023214   -3.659582995028025    0.576389241875903 
He      -7.491662435542153    7.267298817435254   -2.552290401371684 
He       0.495878761529925    7.354361347151741    2.068127941421469 
He       2.301444578552807    3.815093657742294    0.416656585800961 
He       5.225036317201493    7.384051615752419   -7.211416116308586 
He       0.305447636787900    1.261390113975230   -3.729112598718540 
He      -6.746032816463931   -3.155950509097204    7.076099338308362 
He       7.294457155957200   -4.821981489465886   -2.253986191669656 
