17

Li       0.000000000000000    0.000000000000000    0.000000000000000 
He       3.026817659867019    1.181058695327567    1.929920657166472 
He      -6.140121742287585   -3.534351561202431   -0.414355713341671 
He       2.649792455551111   -0.268394035262234   -2.655351027315143 
He       5.914091633849500    3.669885033109781   -1.418710854692423 
He       3.376695372144043   -5.317822592206245   -3.183660843327381 
He       6.996861669510436   -1.633565637211804   -0.702866188638092 
He      -1.346894823985253   -2.713736168133979   -2.336787693553453 
He       2.006629776003053   -3.128629258258292    1.135516823101191 
He      -3.563822448299517    0.087285970644217    7.071543572040143 
He      -1.345298324657611    2.236734166875223    2.687650820214644 
He      -3.316095109988672    1.139104448747819   -1.496572251003881 
He      -0.850016091408353    1.319221875372515   -5.925996748680388 
He      -6.636478452206267    1.497688544431580    2.552888962060619 
He      -2.302643510906534   -1.997460460390548    2.367337752809828 
He       0.565934173618917    3.513616735401616   -1.413468146363155 
He       1.317948717907070   -1.500028678705695    5.821069833497451 
