9

Li       0.000000000000000    0.000000000000000    0.000000000000000 
He       1.972196327523231    1.930754991104415   -2.592505089479406 
He      -0.729421904751730   -0.097130569735732    3.726114707449101 
He       1.101727325080726   -3.446079435239235    0.892378025746681 
He      -2.652099336733602    1.788508716557341   -2.110861760778402 
He      -0.085923112720589    3.616559053555243    1.279129268637244 
He       3.423654852151217    0.389951370535581    1.454312042601782 
He      -0.175013316414944   -1.957984976135502   -3.298629226063375 
He      -3.247245232670701   -1.820353509029479    0.522882456900607 
