20

Li       0.000000000000000    0.000000000000000    0.000000000000000 
He      -2.616475051834795   -2.332300512556207    2.347063791293257 
He      -4.873172307572146    1.073525356049950    5.217293546049756 
He       3.407217965003603   -2.004166149052848   -0.301427501481619 
He       3.633081878447323   -5.236653661433310    5.544422564102753 
He       6.819075750638522   -4.689944663978347   -2.601972874345520 
He      -2.560067758422074    3.275993618481175    0.290484361570780 
He      -6.591074028313466   -5.313375696296164    0.220319204294205 
He       2.949520740872678    4.873266349440033    5.190591310041906 
He      -0.881603376387421   -1.564996999177575   -3.115642783701421 
He      -5.961242888540884    6.330516249847738    5.742127148315078 
He      -1.250461908704596   -5.827266828593091    6.331330064092919 
He      -0.674235292070042    2.865845140845183    6.919257260402102 
He      -4.577883358244026    2.187137425272640   -3.049722776079683 
He      -6.439084640580596   -2.752063943591173   -3.666715843693311 
He      -5.977647810384402   -1.080056634984892   -0.092839223359830 
He       4.198723161796446    1.771320547220496    0.743885298100722 
He       4.381954687888802   -1.809186433661321   -4.325764596781726 
He      -4.299419331176836   -6.726278299950419   -6.386451918853762 
He      -0.681647828258360    6.538612722243810    7.093674783139711 
