5

Li       0.000000000000000    0.000000000000000    0.000000000000000 
He      -0.234024665404588   -3.784256149072689   -0.638828381501270 
He       2.547186018898767    2.617179980438889   -0.835574323575710 
He      -2.425813636497159    2.409232955570339   -0.673667724394122 
He       5.400096024195348   -5.785301525542170   -5.680285467141179 
