16

Li       0.000000000000000    0.000000000000000    0.000000000000000 
He       3.684720427900514   -0.499572716381536    0.915376190708267 
He      -4.279851157020925    3.889457073939055    3.840619634260707 
He       1.513355183793817   -2.450247829956042   -2.611921877431055 
He      -3.390831661169508   -0.381746784855468    1.413320660289420 
He       0.209407673732343   -3.382920456039594    1.650909070772331 
He       4.766266096823593   -5.347635323158380    1.261081480730515 
He      -2.046986676398798   -2.428505927538050    6.191389138561479 
He      -3.210553153048360   -4.503505742267515   -2.137422734248742 
He       3.429096426516136    4.432008518430256    1.309413042043497 
He       0.497603222219524    1.192114106696093    3.522020327348579 
He       2.277690883266241    1.992131791744726   -2.683368479968830 
He      -1.032443496958871    3.559509095561729   -0.165350311606843 
He      -2.176793111175515    0.239439151025515   -3.026047137723818 
He       3.245435855097437   -2.683816402392380    6.014065262693669 
He      -5.712200257882992    3.247369980375290   -1.320848256311822 
