16

Li       0.000000000000000    0.000000000000000    0.000000000000000 
He       1.790043395529629   -1.618637133926972    5.485096324242413 
He      -6.558484164665410    7.452778640264302    5.903433255367061 
He       6.533597884726065   -0.053635280265729    0.719850138336080 
He      -3.550498034736318    1.285801297746541   -7.814922038011602 
He      -3.059296895580744   -1.679477999318001   -1.658784044841513 
He       1.344555005725923   -5.908911520180476    5.034141783219056 
He      -6.378446381636351   -6.482181239454041   -3.784711483718421 
He       3.520857922351476   -7.235082657261657    1.180761568983851 
He      -2.360808079753188    6.991924293351596    3.123108188838241 
He      -3.007819235084265    1.572055595008957    2.282157890780438 
He       0.546481492359241    3.965504717286381   -0.700503630563636 
He      -3.981427723486656    4.239326696998372   -2.566500846544763 
He       1.461806533661631   -0.188843429325319   -4.458205444552739 
He      -3.461646070820333    1.168824432423825    7.319410434211784 
He       3.238504675390432    3.497073178913800   -7.825504215266548 
