7

Li       0.000000000000000    0.000000000000000    0.000000000000000 
He       0.467994068417678    2.370351043176822    2.675360131905999 
He      -0.500653237184446   -2.599925921485298   -2.518084275065148 
He       0.613327507907696   -2.688981693848858    2.336691288097981 
He      -0.802337383795919    2.591022405691911   -2.358019579247926 
He      -3.541987199147381   -0.168989821096646    0.849212967796196 
He       3.507376417312961    0.255605865152630   -0.878408811939093 
