7

Li       0.000000000000000    0.000000000000000    0.000000000000000 
He      -2.815540097007565   -2.498941733860454   -0.786601346327782 
He       3.569453898908870   -2.011638883767302    3.657906470892414 
He      -0.836989465416959   -1.039474464876898   -4.721610219718826 
He      -0.744260121688626    2.043970368266528    3.056040181150010 
He      -0.765761750198541    3.166645763341284   -2.848355138103905 
He       0.781070577521227   -4.330263920093776    1.119978074933321 
