13

Li       0.000000000000000    0.000000000000000    0.000000000000000 
He       1.454825628454044   -2.919238226512165   -4.884896868783452 
He      -5.360536068944851   -2.955184472150293    5.924901438870538 
He      -1.227178113049478   -2.670844338813671    7.676324259471096 
He       3.434508780786754    5.340043254343902    3.664617528148923 
He      -3.060079175947527   -1.543944491223346    0.652704507761950 
He       3.199704747190717   -0.208253754746014   -2.177276934428409 
He       0.129006439634104   -3.068566236407575    2.534567671997227 
He       0.130422001049809    2.662882688540073    1.932079068517883 
He       5.537489735095011    7.375380679351077   -2.546062154937202 
He       5.260838681745826   -0.034015653783564    5.231517204372274 
He      -2.680409854123811    4.843727801105006    4.815875541016378 
He      -2.688877059008748   -3.207425423866031   -7.991785992653625 
