18

Li       0.000000000000000    0.000000000000000    0.000000000000000 
He      -2.971870538450984    2.331159777674571    0.104604003494220 
He      -1.545830799193395   -2.767907951688812   -7.338074259138866 
He      -5.356687056932735    2.763135174748085    3.769815686349398 
He      -2.531771326949208   -6.575181938981359    3.236085140368374 
He      -3.422555143964097   -3.624263876563401    0.427966778964384 
He       2.668604093508117    6.261958805196684   -4.908723299749147 
He      -1.174115738512187    5.364066145315311    6.826158425025952 
He       1.562255961575266   -6.134204924952213    4.383870965658341 
He      -1.567289795860642   -7.156395004488925   -3.550558777443745 
He       3.333301011450372    7.905264918375590    0.833554576909217 
He      -0.035046241712980    3.781238439355890   -6.806649646488367 
He      -7.990895352295146    4.455158081055469   -1.962143268585560 
He       3.856228432301283   -0.606411049860279   -2.995783107801499 
He      -0.910067487622022   -1.443352335649923   -2.810828150016853 
He       7.040779785750123   -6.679492697662823   -7.581208885110286 
He       4.745228919270785   -4.426225814027521   -2.583574352849610 
He       1.359827157666798    3.014186601007221   -1.958841568638004 
